test/TEST190523/v_h23.csv
Bus, BasekV, Node1, Magnitude1, Angle1, pu1, Node2, Magnitude2, Angle2, pu2, Node3, Magnitude3, Angle3, pu3
"SOURCEBUS", 69, 1,    41833.7,   -0.2,    1.0501, 2,    41821.8, -120.2,    1.0498, 3,    41803.1,  119.8,    1.0493
"BUSMVMAI1", 12.8, 1,    7762.65,  -30.5,    1.0504, 2,    7764.56, -150.6,    1.0507, 3,    7750.66,   89.3,    1.0488
"BUSMVMAI136", 12.505, 1,    7762.64,  -30.5,    1.0752, 2,    7764.51, -150.6,    1.0754, 3,    7750.62,   89.3,    1.0735
"BUSMVMAI3", 12.505, 1,     7759.8,  -30.9,    1.0748, 2,    7729.68, -151.0,    1.0706, 3,    7715.99,   88.6,    1.0687
"BUSMVMAI2", 12.505, 1,    7759.79,  -30.9,    1.0748, 2,    7729.58, -151.0,    1.0706, 3,     7715.9,   88.6,    1.0687
"BUSMVMAI4", 12.505, 1,    7759.71,  -30.9,    1.0748, 2,     7728.6, -151.0,    1.0704, 3,    7714.94,   88.5,    1.0686
"BUSMVMAI46", 12.505, 1,     7759.8,  -30.9,    1.0748, 2,    7729.72, -151.0,    1.0706, 3,    7716.03,   88.6,    1.0687
"BUSMVMAI5", 12.505, 1,    7759.39,  -30.9,    1.0747, 2,    7727.44, -151.0,    1.0703, 3,    7713.79,   88.5,    1.0684
"BUSMVMAI862", 12.505, 1,    7759.71,  -30.9,    1.0748, 0, 0, 0, 0, 0, 0, 0, 0
"BUSMVMAI6", 12.505, 1,    7759.32,  -30.9,    1.0747, 2,    7727.23, -151.0,    1.0703, 3,    7713.59,   88.5,    1.0684
"BUSMVMAI859", 12.505, 3,    7713.77,   88.5,    1.0684, 0, 0, 0, 0, 0, 0, 0, 0
"BUSMVMAI860", 12.505, 3,    7713.79,   88.5,    1.0684, 0, 0, 0, 0, 0, 0, 0, 0
"BUSMVMAI7", 12.505, 1,    7758.83,  -30.9,    1.0746, 2,    7726.29, -151.0,    1.0701, 3,    7712.58,   88.5,    1.0682
"BUSMVMAI8", 12.505, 1,    7759.02,  -30.9,    1.0747, 2,    7724.85, -151.0,    1.0699, 3,    7711.96,   88.5,    1.0681
"BUSMVMAI9", 12.505, 1,    7758.83,  -30.9,    1.0746, 2,    7726.29, -151.0,    1.0701, 3,    7712.58,   88.5,    1.0682
"BUSMVMAI10", 12.505, 1,    7758.48,  -30.9,    1.0746, 2,    7726.28, -151.0,    1.0701, 3,    7712.26,   88.5,    1.0682
"BUSMVMAI56", 12.505, 1,    7758.66,  -30.9,    1.0746, 2,    7726.28, -151.0,    1.0701, 3,    7712.42,   88.5,    1.0682
"BUSMVMAI861", 12.505, 3,    7713.71,   88.5,    1.0684, 0, 0, 0, 0, 0, 0, 0, 0
"BUSMVMAI12", 12.505, 1,    7759.18,  -30.9,    1.0747, 2,    7723.68, -151.0,    1.0698, 3,    7711.46,   88.5,    1.0681
"BUSMVMAI51", 12.505, 1,    7759.02,  -30.9,    1.0747, 2,    7724.85, -151.0,    1.0699, 3,    7711.96,   88.5,    1.0681
"BUSMVMAI2171", 12.505, 1,    7759.02,  -30.9,    1.0747, 0, 0, 0, 0, 0, 0, 0, 0
"BUSMVMAI863", 12.505, 3,    7713.67,   88.5,    1.0684, 0, 0, 0, 0, 0, 0, 0, 0
"BUSMVMAI2165", 12.505, 3,    7712.58,   88.5,    1.0682, 0, 0, 0, 0, 0, 0, 0, 0
"BUSMVMAI694", 12.505, 1,    7758.83,  -30.9,    1.0746, 2,    7726.29, -151.0,    1.0701, 3,    7712.57,   88.5,    1.0682
"BUSMVMAI122", 12.505, 1,    7758.46,  -30.9,    1.0746, 2,    7726.28, -151.0,    1.0701, 3,    7712.25,   88.5,    1.0682
"BUSMVMAI11", 12.505, 1,    7759.17,  -30.9,    1.0747, 2,    7723.67, -151.0,    1.0698, 3,    7711.46,   88.5,    1.0681
"BUSMVMAI13", 12.505, 1,    7759.17,  -30.9,    1.0747, 2,    7723.66, -151.0,    1.0698, 3,    7711.46,   88.5,    1.0681
"BUSMVMAI18", 12.505, 1,    7759.24,  -30.9,    1.0747, 2,    7723.25, -151.0,    1.0697, 3,    7711.26,   88.5,     1.068
"BUSMVMAI14", 12.505, 1,    7759.17,  -30.9,    1.0747, 2,    7723.62, -151.0,    1.0698, 3,    7711.47,   88.5,    1.0681
"BUSMVMAI15", 12.505, 1,    7759.17,  -30.9,    1.0747, 2,    7723.59, -151.0,    1.0697, 3,    7711.48,   88.5,    1.0681
"BUSMVMAI16", 12.505, 1,    7759.17,  -30.9,    1.0747, 2,    7723.59, -151.0,    1.0697, 3,    7711.48,   88.5,    1.0681
"BUSMVMAI2166", 12.505, 2,    7723.58, -151.0,    1.0697, 0, 0, 0, 0, 0, 0, 0, 0
"BUSMVMAI2172", 12.505, 1,     7759.7,  -30.9,    1.0748, 0, 0, 0, 0, 0, 0, 0, 0
"BUSMVMAI864", 12.505, 3,    7713.63,   88.5,    1.0684, 0, 0, 0, 0, 0, 0, 0, 0
"BUSMVMAI865", 12.505, 3,    7713.58,   88.5,    1.0684, 0, 0, 0, 0, 0, 0, 0, 0
"BUSMVMAI17", 12.505, 1,    7759.17,  -30.9,    1.0747, 2,    7723.59, -151.0,    1.0697, 3,    7711.48,   88.5,    1.0681
"BUSMVMAI695", 12.505, 1,    7759.17,  -30.9,    1.0747, 2,    7723.59, -151.0,    1.0697, 3,    7711.47,   88.5,    1.0681
"BUSMVMAI866", 12.505, 3,    7713.58,   88.5,    1.0684, 0, 0, 0, 0, 0, 0, 0, 0
"BUSMVMAI2176", 12.505, 3,    7713.58,   88.5,    1.0684, 0, 0, 0, 0, 0, 0, 0, 0
"BUSMVMAI2177", 12.505, 3,    7713.58,   88.5,    1.0684, 0, 0, 0, 0, 0, 0, 0, 0
"BUSMVMAI2178", 12.505, 3,    7713.55,   88.5,    1.0684, 0, 0, 0, 0, 0, 0, 0, 0
"BUSMVMAI19", 12.505, 1,    7759.35,  -30.9,    1.0747, 2,    7722.47, -151.0,    1.0696, 3,    7710.92,   88.5,     1.068
"BUSMVMAI20", 12.505, 1,    7759.52,  -30.9,    1.0747, 2,    7721.38, -151.0,    1.0694, 3,    7710.43,   88.4,    1.0679
"BUSMVMAI53", 12.505, 1,    7759.35,  -30.9,    1.0747, 2,    7722.47, -151.0,    1.0696, 3,    7710.92,   88.5,     1.068
"BUSMVMAI21", 12.505, 1,     7759.7,  -30.9,    1.0748, 2,    7720.23, -151.0,    1.0693, 3,    7709.92,   88.4,    1.0679
"BUSMVMAI22", 12.505, 1,     7759.9,  -31.0,    1.0748, 2,    7718.88, -151.0,    1.0691, 3,    7709.33,   88.4,    1.0678
"BUSMVMAI23", 12.505, 1,     7759.7,  -30.9,    1.0748, 2,    7720.23, -151.0,    1.0693, 3,    7709.92,   88.4,    1.0679
"BUSMVMAI25", 12.505, 1,    7760.11,  -31.0,    1.0748, 2,    7717.49, -151.0,    1.0689, 3,    7708.73,   88.4,    1.0677
"BUSMVMAI52", 12.505, 1,     7759.9,  -31.0,    1.0748, 2,    7718.88, -151.0,    1.0691, 3,    7709.33,   88.4,    1.0678
"BUSMVMAI54", 12.505, 1,     7759.9,  -31.0,    1.0748, 2,    7718.88, -151.0,    1.0691, 3,    7709.33,   88.4,    1.0678
"BUSMVMAI55", 12.505, 1,     7759.9,  -31.0,    1.0748, 2,    7718.88, -151.0,    1.0691, 3,    7709.33,   88.4,    1.0678
"BUSMVMAI696", 12.505, 1,     7759.7,  -30.9,    1.0748, 2,    7720.24, -151.0,    1.0693, 3,    7709.91,   88.4,    1.0679
"BUSMVMAI24", 12.505, 1,    7760.13,  -31.0,    1.0748, 2,    7717.36, -151.0,    1.0689, 3,    7708.68,   88.4,    1.0677
"BUSMVMAI26", 12.505, 1,    7760.33,  -31.0,    1.0748, 2,    7715.97, -151.0,    1.0687, 3,    7708.08,   88.4,    1.0676
"BUSMVMAI49", 12.505, 1,    7760.11,  -31.0,    1.0748, 2,    7717.49, -151.0,    1.0689, 3,    7708.73,   88.4,    1.0677
"BUSMVMAI50", 12.505, 1,    7760.11,  -31.0,    1.0748, 2,    7717.49, -151.0,    1.0689, 3,    7708.73,   88.4,    1.0677
"BUSMVMAI27", 12.505, 1,    7760.32,  -31.0,    1.0748, 2,    7715.98, -151.0,    1.0687, 3,    7708.08,   88.4,    1.0676
"BUSMVMAI28", 12.505, 1,    7760.49,  -31.0,    1.0749, 2,    7714.91, -151.1,    1.0685, 3,    7707.64,   88.4,    1.0675
"BUSMVMAI29", 12.505, 1,    7760.31,  -31.0,    1.0748, 2,    7715.98, -151.0,    1.0687, 3,    7708.07,   88.4,    1.0676
"BUSMVMAI31", 12.505, 1,    7760.68,  -31.0,    1.0749, 2,    7713.67, -151.1,    1.0684, 3,    7707.12,   88.3,    1.0675
"BUSMVMAI30", 12.505, 1,     7760.3,  -31.0,    1.0748, 2,    7715.99, -151.0,    1.0687, 3,    7708.06,   88.4,    1.0676
"BUSMVMAI34", 12.505, 1,    7760.29,  -31.0,    1.0748, 2,       7716, -151.0,    1.0687, 3,    7708.05,   88.4,    1.0676
"BUSMVMAI867", 12.505, 1,    7760.64,  -31.0,    1.0749, 0, 0, 0, 0, 0, 0, 0, 0
"BUSMVMAI43", 12.505, 1,    7760.68,  -31.0,    1.0749, 2,    7713.64, -151.1,    1.0684, 3,    7707.11,   88.3,    1.0675
"BUSMVMAI871", 12.505, 2,    7713.67, -151.1,    1.0684, 0, 0, 0, 0, 0, 0, 0, 0
"BUSMVMAI33", 12.505, 1,    7760.74,  -31.0,    1.0749, 2,    7713.28, -151.1,    1.0683, 3,    7706.96,   88.3,    1.0674
"BUSMVMAI32", 12.505, 1,    7760.92,  -31.0,    1.0749, 2,    7712.22, -151.1,    1.0682, 3,    7706.54,   88.3,    1.0674
"BUSMVMAI37", 12.505, 1,    7761.15,  -31.0,     1.075, 2,    7710.75, -151.1,     1.068, 3,    7705.96,   88.3,    1.0673
"BUSMVMAI44", 12.505, 1,    7760.69,  -31.0,    1.0749, 2,    7713.61, -151.1,    1.0684, 3,    7707.09,   88.3,    1.0675
"BUSMVMAI35", 12.505, 1,     7760.3,  -31.0,    1.0748, 2,       7716, -151.0,    1.0687, 3,    7708.05,   88.4,    1.0676
"BUSMVMAI36", 12.505, 1,     7760.3,  -31.0,    1.0748, 2,       7716, -151.0,    1.0687, 3,    7708.04,   88.4,    1.0676
"BUSMVMAI869", 12.505, 1,    7760.64,  -31.0,    1.0749, 0, 0, 0, 0, 0, 0, 0, 0
"BUSMVMAI38", 12.505, 1,    7761.35,  -31.0,     1.075, 2,    7709.59, -151.1,    1.0678, 3,    7705.51,   88.3,    1.0672
"BUSMVMAI2181", 12.505, 1,    7761.15,  -31.0,     1.075, 0, 0, 0, 0, 0, 0, 0, 0
"BUSMVMAI868", 12.505, 1,    7760.58,  -31.0,    1.0749, 0, 0, 0, 0, 0, 0, 0, 0
"BUSMVMAI870", 12.505, 1,    7760.52,  -31.0,    1.0749, 0, 0, 0, 0, 0, 0, 0, 0
"BUSMVMAI39", 12.505, 1,    7761.37,  -31.0,     1.075, 2,    7709.58, -151.1,    1.0678, 3,    7705.47,   88.3,    1.0672
"BUSMVMAI40", 12.505, 1,     7761.5,  -31.0,     1.075, 2,    7708.46, -151.1,    1.0677, 3,     7705.1,   88.3,    1.0672
"BUSMVMAI697", 12.505, 1,    7761.39,  -31.0,     1.075, 2,    7709.59, -151.1,    1.0678, 3,    7705.36,   88.3,    1.0672
"BUSMVMAI41", 12.505, 1,    7761.69,  -31.0,     1.075, 2,    7707.15, -151.1,    1.0675, 3,    7704.62,   88.3,    1.0671
"BUSMVMAI42", 12.505, 1,     7761.7,  -31.0,     1.075, 2,    7707.15, -151.1,    1.0675, 3,    7704.61,   88.3,    1.0671
"BUSMVMAI48", 12.505, 1,    7761.83,  -31.0,     1.075, 2,    7706.06, -151.1,    1.0673, 3,    7704.23,   88.2,    1.0671
"BUSMVMAI303", 12.505, 1,    7761.76,  -31.0,     1.075, 2,    7706.61, -151.1,    1.0674, 3,    7704.42,   88.3,    1.0671
"BUSMVMAI45", 12.505, 1,     7761.7,  -31.0,     1.075, 2,    7707.15, -151.1,    1.0675, 3,     7704.6,   88.3,    1.0671
"BUSMVMAI701", 12.505, 1,     7761.7,  -31.0,     1.075, 2,    7707.15, -151.1,    1.0675, 3,    7704.59,   88.3,    1.0671
"BUSMVMAI47", 12.505, 1,    7759.83,  -30.9,    1.0748, 2,    7730.15, -151.0,    1.0707, 3,    7716.46,   88.6,    1.0688
"BUSMVMAI179", 12.505, 1,    7759.82,  -30.9,    1.0748, 2,    7729.93, -151.0,    1.0706, 3,    7716.25,   88.6,    1.0687
"BUSMVMAI160", 12.505, 1,    7759.91,  -30.9,    1.0748, 2,    7731.19, -150.9,    1.0708, 3,    7717.48,   88.6,    1.0689
"BUSMVMAI1103", 12.505, 1,     7761.8,  -31.0,     1.075, 0, 0, 0, 0, 0, 0, 0, 0
"BUSMVMAI259", 12.505, 1,    7761.93,  -31.0,    1.0751, 2,    7705.51, -151.1,    1.0672, 3,    7704.05,   88.2,     1.067
"BUSMVMAI304", 12.505, 1,    7761.83,  -31.0,     1.075, 2,    7706.06, -151.1,    1.0673, 3,    7704.23,   88.2,    1.0671
"BUSMVMAI702", 12.505, 1,    7760.11,  -31.0,    1.0748, 2,    7717.49, -151.0,    1.0689, 3,    7708.73,   88.4,    1.0677
"BUSMVMAI58", 12.505, 1,    7758.24,  -30.9,    1.0745, 2,    7726.27, -151.0,    1.0701, 3,    7712.05,   88.5,    1.0682
"BUSMVMAI57", 12.505, 1,    7757.41,  -30.9,    1.0744, 2,    7726.24, -151.0,    1.0701, 3,     7711.3,   88.5,     1.068
"BUSMVMAI60", 12.505, 1,    7757.06,  -31.0,    1.0744, 2,    7726.24, -151.0,    1.0701, 3,       7711,   88.5,     1.068
"BUSMVMAI703", 12.505, 1,    7757.41,  -30.9,    1.0744, 2,    7726.25, -151.0,    1.0701, 3,    7711.29,   88.5,     1.068
"BUSMVMAI123", 12.505, 1,    7758.44,  -30.9,    1.0746, 2,    7726.28, -151.0,    1.0701, 3,    7712.23,   88.5,    1.0682
"BUSMVMAI59", 12.505, 1,    7756.56,  -31.0,    1.0743, 2,    7726.25, -151.0,    1.0701, 3,    7710.67,   88.5,     1.068
"BUSMVMAI61", 12.505, 1,    7755.72,  -31.0,    1.0742, 2,    7726.27, -151.0,    1.0701, 3,    7710.13,   88.5,    1.0679
"BUSMVMAI63", 12.505, 1,    7757.08,  -31.0,    1.0744, 2,    7726.22, -151.0,    1.0701, 3,    7710.95,   88.5,     1.068
"BUSMVMAI874", 12.505, 3,       7711,   88.5,     1.068, 0, 0, 0, 0, 0, 0, 0, 0
"BUSMVMAI62", 12.505, 1,    7754.88,  -31.0,    1.0741, 2,    7726.27, -151.0,    1.0701, 3,    7709.57,   88.5,    1.0678
"BUSMVMAI64", 12.505, 1,    7753.95,  -31.0,     1.074, 2,     7726.3, -151.0,    1.0701, 3,    7709.14,   88.5,    1.0677
"BUSMVMAI942", 12.505, 3,    7709.56,   88.5,    1.0678, 0, 0, 0, 0, 0, 0, 0, 0
"BUSMVMAI873", 12.505, 3,    7709.56,   88.5,    1.0678, 0, 0, 0, 0, 0, 0, 0, 0
"BUSMVMAI872", 12.505, 3,    7709.35,   88.5,    1.0678, 0, 0, 0, 0, 0, 0, 0, 0
"BUSMVMAI880", 12.505, 3,    7709.35,   88.5,    1.0678, 0, 0, 0, 0, 0, 0, 0, 0
"BUSMVMAI945", 12.505, 3,    7710.95,   88.5,     1.068, 0, 0, 0, 0, 0, 0, 0, 0
"BUSMVMAI65", 12.505, 1,    7752.97,  -31.0,    1.0738, 2,     7726.3, -151.0,    1.0701, 3,    7708.67,   88.5,    1.0677
"BUSMVMAI66", 12.505, 1,    7751.98,  -31.0,    1.0737, 2,    7726.31, -151.0,    1.0701, 3,     7708.2,   88.5,    1.0676
"BUSMVMAI67", 12.505, 1,    7750.91,  -31.0,    1.0735, 2,    7726.31, -151.0,    1.0701, 3,     7707.7,   88.5,    1.0675
"BUSMVMAI878", 12.505, 1,    7750.85,  -31.0,    1.0735, 0, 0, 0, 0, 0, 0, 0, 0
"BUSMVMAI68", 12.505, 1,    7750.13,  -31.0,    1.0734, 2,    7726.28, -151.0,    1.0701, 3,    7707.32,   88.5,    1.0675
"BUSMVMAI706", 12.505, 1,    7750.92,  -31.0,    1.0735, 2,    7726.31, -151.0,    1.0701, 3,    7707.69,   88.5,    1.0675
"BUSMVMAI876", 12.505, 3,    7710.94,   88.5,     1.068, 0, 0, 0, 0, 0, 0, 0, 0
"BUSMVMAI875", 12.505, 3,    7710.77,   88.5,     1.068, 0, 0, 0, 0, 0, 0, 0, 0
"BUSMVMAI877", 12.505, 3,    7710.72,   88.5,     1.068, 0, 0, 0, 0, 0, 0, 0, 0
"BUSMVMAI883", 12.505, 3,    7710.59,   88.5,    1.0679, 0, 0, 0, 0, 0, 0, 0, 0
"BUSMVMAI884", 12.505, 3,    7710.71,   88.5,     1.068, 0, 0, 0, 0, 0, 0, 0, 0
"BUSMVMAI886", 12.505, 3,    7710.71,   88.5,     1.068, 0, 0, 0, 0, 0, 0, 0, 0
"BUSMVMAI885", 12.505, 1,    7750.76,  -31.0,    1.0735, 0, 0, 0, 0, 0, 0, 0, 0
"BUSMVMAI879", 12.505, 3,    7709.06,   88.5,    1.0677, 0, 0, 0, 0, 0, 0, 0, 0
"BUSMVMAI881", 12.505, 3,    7709.02,   88.5,    1.0677, 0, 0, 0, 0, 0, 0, 0, 0
"BUSMVMAI888", 12.505, 3,    7709.01,   88.5,    1.0677, 0, 0, 0, 0, 0, 0, 0, 0
"BUSMVMAI882", 12.505, 3,    7708.99,   88.5,    1.0677, 0, 0, 0, 0, 0, 0, 0, 0
"BUSMVMAI944", 12.505, 3,    7708.99,   88.5,    1.0677, 0, 0, 0, 0, 0, 0, 0, 0
"BUSMVMAI889", 12.505, 3,    7710.47,   88.5,    1.0679, 0, 0, 0, 0, 0, 0, 0, 0
"BUSMVMAI2183", 12.505, 3,     7710.7,   88.5,     1.068, 0, 0, 0, 0, 0, 0, 0, 0
"BUSMVMAI2184", 12.505, 3,     7710.7,   88.5,     1.068, 0, 0, 0, 0, 0, 0, 0, 0
"BUSMVMAI71", 12.505, 1,    7749.37,  -31.0,    1.0733, 2,    7726.24, -151.0,    1.0701, 3,    7706.95,   88.5,    1.0674
"BUSMVMAI2182", 12.505, 1,    7750.76,  -31.0,    1.0735, 0, 0, 0, 0, 0, 0, 0, 0
"BUSMVMAI2185", 12.505, 1,    7750.76,  -31.0,    1.0735, 0, 0, 0, 0, 0, 0, 0, 0
"BUSMVMAI2186", 12.505, 1,     7750.7,  -31.0,    1.0735, 0, 0, 0, 0, 0, 0, 0, 0
"BUSMVMAI887", 12.505, 3,    7710.69,   88.5,     1.068, 0, 0, 0, 0, 0, 0, 0, 0
"BUSMVMAI892", 12.505, 3,    7710.68,   88.5,     1.068, 0, 0, 0, 0, 0, 0, 0, 0
"BUSMVMAI897", 12.505, 3,    7708.96,   88.5,    1.0677, 0, 0, 0, 0, 0, 0, 0, 0
"BUSMVMAI890", 12.505, 3,    7710.37,   88.5,    1.0679, 0, 0, 0, 0, 0, 0, 0, 0
"BUSMVMAI891", 12.505, 3,     7710.3,   88.5,    1.0679, 0, 0, 0, 0, 0, 0, 0, 0
"BUSMVMAI896", 12.505, 3,    7710.28,   88.5,    1.0679, 0, 0, 0, 0, 0, 0, 0, 0
"BUSMVMAI893", 12.505, 3,    7710.67,   88.5,     1.068, 0, 0, 0, 0, 0, 0, 0, 0
"BUSMVMAI894", 12.505, 3,    7710.66,   88.5,     1.068, 0, 0, 0, 0, 0, 0, 0, 0
"BUSMVMAI895", 12.505, 3,    7710.66,   88.5,     1.068, 0, 0, 0, 0, 0, 0, 0, 0
"BUSMVMAI898", 12.505, 3,    7710.65,   88.5,     1.068, 0, 0, 0, 0, 0, 0, 0, 0
"BUSMVMAI70", 12.505, 1,    7750.92,  -31.0,    1.0735, 2,    7726.31, -151.0,    1.0701, 3,    7707.67,   88.5,    1.0675
"BUSMVMAI69", 12.505, 1,    7750.92,  -31.0,    1.0735, 2,    7726.31, -151.0,    1.0701, 3,    7707.67,   88.5,    1.0675
"BUSMVMAI708", 12.505, 1,    7750.92,  -31.0,    1.0735, 2,    7726.31, -151.0,    1.0701, 3,    7707.67,   88.5,    1.0675
"BUSMVMAI72", 12.505, 1,    7748.38,  -31.0,    1.0732, 2,    7726.19, -151.0,    1.0701, 3,    7706.47,   88.5,    1.0674
"BUSMVMAI73", 12.505, 1,    7747.43,  -31.0,    1.0731, 2,    7726.16, -151.0,    1.0701, 3,    7706.06,   88.5,    1.0673
"BUSMVMAI134", 12.505, 1,    7748.38,  -31.0,    1.0732, 2,    7726.19, -151.0,    1.0701, 3,    7706.47,   88.5,    1.0674
"BUSMVMAI900", 12.505, 3,     7708.9,   88.5,    1.0677, 0, 0, 0, 0, 0, 0, 0, 0
"BUSMVMAI904", 12.505, 3,    7710.65,   88.5,     1.068, 0, 0, 0, 0, 0, 0, 0, 0
"BUSMVMAI75", 12.505, 1,    7746.97,  -31.0,     1.073, 2,    7726.18, -151.0,    1.0701, 3,    7705.86,   88.5,    1.0673
"BUSMVMAI718", 12.505, 1,    7747.42,  -31.0,    1.0731, 2,    7726.15, -151.0,    1.0701, 3,    7706.06,   88.5,    1.0673
"BUSMVMAI899", 12.505, 3,     7708.9,   88.5,    1.0677, 0, 0, 0, 0, 0, 0, 0, 0
"BUSMVMAI902", 12.505, 3,    7708.88,   88.5,    1.0677, 0, 0, 0, 0, 0, 0, 0, 0
"BUSMVMAI901", 12.505, 3,    7708.86,   88.5,    1.0677, 0, 0, 0, 0, 0, 0, 0, 0
"BUSMVMAI903", 12.505, 3,    7708.82,   88.5,    1.0677, 0, 0, 0, 0, 0, 0, 0, 0
"BUSMVMAI905", 12.505, 3,    7708.78,   88.5,    1.0677, 0, 0, 0, 0, 0, 0, 0, 0
"BUSMVMAI907", 12.505, 3,    7708.82,   88.5,    1.0677, 0, 0, 0, 0, 0, 0, 0, 0
"BUSMVMAI906", 12.505, 3,    7708.78,   88.5,    1.0677, 0, 0, 0, 0, 0, 0, 0, 0
"BUSMVMAI946", 12.505, 3,    7708.78,   88.5,    1.0677, 0, 0, 0, 0, 0, 0, 0, 0
"BUSMVMAI74", 12.505, 1,    7746.97,  -31.0,     1.073, 2,    7726.18, -151.0,    1.0701, 3,    7705.86,   88.5,    1.0673
"BUSMVMAI76", 12.505, 1,    7746.88,  -31.0,     1.073, 2,    7726.24, -151.0,    1.0701, 3,    7705.81,   88.5,    1.0673
"BUSMVMAI77", 12.505, 1,    7746.71,  -31.0,     1.073, 2,    7726.15, -151.0,    1.0701, 3,    7705.74,   88.5,    1.0673
"BUSMVMAI79", 12.505, 1,    7746.87,  -31.0,     1.073, 2,    7726.25, -151.0,    1.0701, 3,    7705.81,   88.5,    1.0673
"BUSMVMAI81", 12.505, 1,    7746.69,  -31.0,    1.0729, 2,    7726.09, -151.0,    1.0701, 3,    7705.77,   88.5,    1.0673
"BUSMVMAI91", 12.505, 1,    7746.05,  -31.0,    1.0729, 2,    7726.13, -151.0,    1.0701, 3,    7705.42,   88.5,    1.0672
"BUSMVMAI78", 12.505, 1,     7746.7,  -31.0,     1.073, 2,    7726.37, -151.0,    1.0701, 3,    7705.72,   88.5,    1.0673
"BUSMVMAI80", 12.505, 1,    7746.53,  -31.0,    1.0729, 2,    7726.49, -151.0,    1.0702, 3,    7705.64,   88.5,    1.0673
"BUSMVMAI908", 12.505, 1,    7746.45,  -31.0,    1.0729, 0, 0, 0, 0, 0, 0, 0, 0
"BUSMVMAI89", 12.505, 1,    7746.47,  -31.0,    1.0729, 2,    7726.54, -151.0,    1.0702, 3,    7705.59,   88.5,    1.0673
"BUSMVMAI949", 12.505, 3,    7708.82,   88.5,    1.0677, 0, 0, 0, 0, 0, 0, 0, 0
"BUSMVMAI82", 12.505, 1,    7746.68,  -31.0,    1.0729, 2,    7726.04, -151.0,    1.0701, 3,    7705.78,   88.5,    1.0673
"BUSMVMAI83", 12.505, 1,    7746.68,  -31.0,    1.0729, 2,    7726.03, -151.0,    1.0701, 3,    7705.78,   88.5,    1.0673
"BUSMVMAI86", 12.505, 1,    7746.68,  -31.0,    1.0729, 2,    7726.01, -151.0,    1.0701, 3,    7705.77,   88.5,    1.0673
"BUSMVMAI85", 12.505, 1,     7747.4,  -31.0,     1.073, 2,    7726.08, -151.0,    1.0701, 3,    7706.04,   88.5,    1.0673
"BUSMVMAI84", 12.505, 1,    7747.35,  -31.0,     1.073, 2,       7726, -151.0,    1.0701, 3,    7706.04,   88.5,    1.0673
"BUSMVMAI93", 12.505, 1,    7747.32,  -31.0,     1.073, 2,    7725.96, -151.0,    1.0701, 3,    7706.03,   88.5,    1.0673
"BUSMVMAI2198", 12.505, 2,       7726, -151.0,    1.0701, 0, 0, 0, 0, 0, 0, 0, 0
"BUSMVMAI709", 12.505, 1,    7747.42,  -31.0,    1.0731, 2,    7726.15, -151.0,    1.0701, 3,    7706.06,   88.5,    1.0673
"BUSMVMAI88", 12.505, 1,    7746.69,  -31.0,    1.0729, 2,       7726, -151.0,    1.0701, 3,    7705.76,   88.5,    1.0673
"BUSMVMAI87", 12.505, 1,    7746.69,  -31.0,    1.0729, 2,    7725.99, -151.0,    1.0701, 3,    7705.75,   88.5,    1.0673
"BUSMVMAI99", 12.505, 1,    7746.69,  -31.0,    1.0729, 2,    7725.98, -151.0,    1.0701, 3,    7705.76,   88.5,    1.0673
"BUSMVMAI722", 12.505, 1,    7746.69,  -31.0,    1.0729, 2,    7725.99, -151.0,    1.0701, 3,    7705.75,   88.5,    1.0673
"BUSMVMAI909", 12.505, 1,    7746.37,  -31.0,    1.0729, 0, 0, 0, 0, 0, 0, 0, 0
"BUSMVMAI90", 12.505, 1,    7746.44,  -31.0,    1.0729, 2,    7726.57, -151.0,    1.0702, 3,    7705.55,   88.5,    1.0673
"BUSMVMAI102", 12.505, 1,     7746.4,  -31.0,    1.0729, 2,     7726.6, -151.0,    1.0702, 3,    7705.51,   88.5,    1.0672
"BUSMVMAI92", 12.505, 1,    7745.47,  -31.0,    1.0728, 2,    7726.12, -151.0,    1.0701, 3,    7705.15,   88.5,    1.0672
"BUSMVMAI132", 12.505, 1,    7746.05,  -31.0,    1.0729, 2,    7726.13, -151.0,    1.0701, 3,    7705.42,   88.5,    1.0672
"BUSMVMAI98", 12.505, 1,    7745.47,  -31.0,    1.0728, 2,    7726.12, -151.0,    1.0701, 3,    7705.14,   88.5,    1.0672
"BUSMVMAI100", 12.505, 1,    7744.75,  -31.0,    1.0727, 2,    7726.16, -151.0,    1.0701, 3,    7704.76,   88.5,    1.0671
"BUSMVMAI723", 12.505, 1,    7745.47,  -31.0,    1.0728, 2,    7726.11, -151.0,    1.0701, 3,    7705.15,   88.5,    1.0672
"BUSMVMAI96", 12.505, 1,    7747.29,  -31.0,     1.073, 2,    7725.92, -151.0,    1.0701, 3,    7706.03,   88.5,    1.0673
"BUSMVMAI916", 12.505, 1,    7747.31,  -31.0,     1.073, 0, 0, 0, 0, 0, 0, 0, 0
"BUSMVMAI95", 12.505, 1,    7745.47,  -31.0,    1.0728, 2,    7726.06, -151.0,    1.0701, 3,    7705.15,   88.5,    1.0672
"BUSMVMAI94", 12.505, 1,    7745.45,  -31.0,    1.0728, 2,    7726.01, -151.0,    1.0701, 3,    7705.17,   88.5,    1.0672
"BUSMVMAI112", 12.505, 1,    7745.45,  -31.0,    1.0728, 2,    7726.02, -151.0,    1.0701, 3,    7705.16,   88.5,    1.0672
"BUSMVMAI126", 12.505, 1,    7745.47,  -31.0,    1.0728, 2,    7726.07, -151.0,    1.0701, 3,    7705.15,   88.5,    1.0672
"BUSMVMAI97", 12.505, 1,    7747.25,  -31.0,     1.073, 2,    7725.86, -151.0,    1.0701, 3,    7706.03,   88.5,    1.0673
"BUSMVMAI711", 12.505, 1,    7747.29,  -31.0,     1.073, 2,    7725.92, -151.0,    1.0701, 3,    7706.03,   88.5,    1.0673
"BUSMVMAI915", 12.505, 1,    7747.25,  -31.0,     1.073, 0, 0, 0, 0, 0, 0, 0, 0
...
"BUSLVMAI1", 0.20785, 1,    128.165,   88.5,     1.068, 2,     128.18,  -91.5,    1.0682, 0, 0, 0, 0
"BUSLVMAI2", 0.20785, 1,    128.067,   88.4,    1.0672, 2,     128.08,  -91.6,    1.0673, 0, 0, 0, 0
"BUSLVMAI3", 0.20785, 1,    128.145,   88.5,    1.0679, 2,    128.161,  -91.5,     1.068, 0, 0, 0, 0
"BUSLVMAI4", 0.20785, 1,    128.583,  -31.1,    1.0715, 2,    128.654,  148.9,    1.0721, 0, 0, 0, 0
"BUSLVMAI5", 0.20785, 1,    127.966, -151.1,    1.0664, 2,    128.007,   28.9,    1.0667, 0, 0, 0, 0
"BUSLVMAI6", 0.20785, 1,    128.072,   88.4,    1.0673, 2,    128.088,  -91.6,    1.0674, 0, 0, 0, 0
"BUSLVMAI7", 0.20785, 1,     128.17,   88.5,    1.0681, 2,    128.184,  -91.5,    1.0682, 0, 0, 0, 0
"BUSLVMAI8", 0.20785, 1,    127.772,   88.4,    1.0648, 2,    127.791,  -91.6,    1.0649, 0, 0, 0, 0
"BUSLVMAI9", 0.20785, 1,    127.747,   88.1,    1.0646, 2,     127.76,  -91.9,    1.0647, 0, 0, 0, 0
"BUSLVMAI10", 0.20785, 1,    127.769,   88.2,    1.0647, 2,    127.782,  -91.8,    1.0649, 0, 0, 0, 0
"BUSLVMAI11", 0.20785, 1,    128.322, -151.0,    1.0694, 2,    128.335,   29.0,    1.0695, 0, 0, 0, 0
"BUSLVMAI12", 0.20785, 1,     128.29, -151.0,    1.0691, 2,    128.305,   29.0,    1.0692, 0, 0, 0, 0
"BUSLVMAI13", 0.20785, 1,    128.914,  -30.9,    1.0743, 2,     128.93,  149.1,    1.0744, 0, 0, 0, 0
"BUSLVMAI14", 0.20785, 1,    128.913,  -31.0,    1.0743, 2,    128.929,  149.0,    1.0744, 0, 0, 0, 0
"BUSLVMAI15", 0.20785, 1,    128.899,  -30.9,    1.0742, 2,    128.912,  149.0,    1.0743, 0, 0, 0, 0
"BUSLVMAI16", 0.20785, 1,    128.149,   88.5,    1.0679, 2,    128.167,  -91.5,    1.0681, 0, 0, 0, 0
"BUSLVMAI17", 0.20785, 1,    127.654,   88.2,    1.0638, 2,    127.685,  -91.8,     1.064, 0, 0, 0, 0
"BUSLVMAI18", 0.20785, 1,    128.103,   88.4,    1.0675, 2,    128.119,  -91.6,    1.0677, 0, 0, 0, 0
"BUSLVMAI19", 0.20785, 1,    128.111,   88.5,    1.0676, 2,    128.124,  -91.5,    1.0677, 0, 0, 0, 0
"BUSLVMAI20", 0.20785, 1,    128.029, -151.1,    1.0669, 2,    128.053,   28.9,    1.0671, 0, 0, 0, 0
"BUSLVMAI21", 0.20785, 1,    128.165,   88.5,     1.068, 2,    128.181,  -91.5,    1.0682, 0, 0, 0, 0
"BUSLVMAI22", 0.20785, 1,     128.84,  -31.0,    1.0737, 2,    128.899,  149.0,    1.0742, 0, 0, 0, 0
"BUSLVMAI23", 0.20785, 1,    128.132,   88.5,    1.0678, 2,    128.147,  -91.5,    1.0679, 0, 0, 0, 0
"BUSLVMAI24", 0.20785, 1,    128.136,   88.5,    1.0678, 2,    128.152,  -91.5,    1.0679, 0, 0, 0, 0
"BUSLVMAI25", 0.20785, 1,    128.096,   88.5,    1.0675, 2,    128.111,  -91.5,    1.0676, 0, 0, 0, 0
"BUSLVMAI26", 0.20785, 1,    128.273, -151.0,    1.0689, 2,    128.288,   29.0,    1.0691, 0, 0, 0, 0
"BUSLVMAI27", 0.20785, 1,    128.334, -151.0,    1.0694, 2,     128.35,   29.0,    1.0696, 0, 0, 0, 0
"BUSLVMAI28", 0.20785, 1,    128.103,   88.4,    1.0675, 2,    128.119,  -91.6,    1.0677, 0, 0, 0, 0
"BUSLVMAI29", 0.20785, 1,    127.925,   88.2,     1.066, 2,     127.94,  -91.8,    1.0662, 0, 0, 0, 0
"BUSLVMAI30", 0.20785, 1,    128.172, -151.1,    1.0681, 2,    128.186,   28.9,    1.0682, 0, 0, 0, 0
"BUSLVMAI31", 0.20785, 1,    128.147,   88.5,    1.0679, 2,    128.163,  -91.5,     1.068, 0, 0, 0, 0
"BUSLVMAI32", 0.20785, 1,    128.762,  -31.0,     1.073, 2,    128.775,  149.0,    1.0731, 0, 0, 0, 0
"BUSLVMAI33", 0.20785, 1,    128.091,   88.4,    1.0674, 2,    128.104,  -91.6,    1.0675, 0, 0, 0, 0
"BUSLVMAI34", 0.20785, 1,    127.132,   88.3,    1.0594, 2,    127.238,  -91.7,    1.0603, 0, 0, 0, 0
"BUSLVMAI35", 0.20785, 1,    128.092,   88.5,    1.0674, 2,    128.107,  -91.5,    1.0676, 0, 0, 0, 0
"BUSLVMAI36", 0.20785, 1,    128.091,   88.5,    1.0674, 2,    128.105,  -91.5,    1.0675, 0, 0, 0, 0
"BUSLVMAI37", 0.20785, 1,    128.083,   88.5,    1.0674, 2,    128.098,  -91.5,    1.0675, 0, 0, 0, 0
"BUSLVMAI38", 0.20785, 1,    125.833, -151.6,    1.0486, 2,     125.85,   28.4,    1.0488, 0, 0, 0, 0
"BUSLVMAI39", 0.20785, 1,    128.145, -151.1,    1.0679, 2,    128.158,   28.9,     1.068, 0, 0, 0, 0
"BUSLVMAI40", 0.20785, 1,     127.79,   88.3,    1.0649, 2,    127.837,  -91.7,    1.0653, 0, 0, 0, 0
"BUSLVMAI41", 0.20785, 1,    128.714,  -31.0,    1.0726, 2,     128.73,  149.0,    1.0727, 0, 0, 0, 0
"BUSLVMAI42", 0.20785, 1,    128.743,  -31.0,    1.0729, 2,    128.759,  149.0,     1.073, 0, 0, 0, 0
"BUSLVMAI43", 0.20785, 1,    128.725,  -31.0,    1.0727, 2,    128.741,  149.0,    1.0728, 0, 0, 0, 0
"BUSLVMAI44", 0.20785, 1,    127.955,   88.5,    1.0663, 2,    127.984,  -91.5,    1.0665, 0, 0, 0, 0
"BUSLVMAI45", 0.20785, 1,    127.955,   88.5,    1.0663, 2,    127.969,  -91.5,    1.0664, 0, 0, 0, 0
"BUSLVMAI46", 0.20785, 1,    128.038,   88.5,     1.067, 2,    128.054,  -91.5,    1.0671, 0, 0, 0, 0
"BUSLVMAI47", 0.20785, 1,    128.094,   88.5,    1.0675, 2,    128.109,  -91.5,    1.0676, 0, 0, 0, 0
"BUSLVMAI48", 0.20785, 1,    127.825,   88.4,    1.0652, 2,    127.843,  -91.6,    1.0654, 0, 0, 0, 0
"BUSLVMAI49", 0.20785, 1,    128.724,  -31.0,    1.0727, 2,     128.74,  149.0,    1.0728, 0, 0, 0, 0
"BUSLVMAI50", 0.20785, 1,    127.458, -151.3,    1.0622, 2,    127.566,   28.7,     1.063, 0, 0, 0, 0
"BUSLVMAI51", 0.20785, 1,    128.331,  -31.1,    1.0694, 2,    128.348,  148.8,    1.0696, 0, 0, 0, 0
"BUSLVMAI52", 0.20785, 1,    128.102,   88.5,    1.0675, 2,    128.115,  -91.5,    1.0676, 0, 0, 0, 0
"BUSLVMAI53", 0.20785, 1,    128.086,   88.5,    1.0674, 2,    128.102,  -91.5,    1.0675, 0, 0, 0, 0
"BUSLVMAI54", 0.20785, 1,    127.652,   88.4,    1.0638, 2,    127.668,  -91.6,    1.0639, 0, 0, 0, 0
"BUSLVMAI55", 0.20785, 1,    128.743,  -31.0,    1.0729, 2,    128.759,  149.0,     1.073, 0, 0, 0, 0
"BUSLVMAI56", 0.20785, 1,    127.816,   88.4,    1.0651, 2,    127.829,  -91.6,    1.0652, 0, 0, 0, 0
"BUSLVMAI57", 0.20785, 1,    128.024,   88.5,    1.0669, 2,    128.039,  -91.5,     1.067, 0, 0, 0, 0
"BUSLVMAI58", 0.20785, 1,      128.1,   88.5,    1.0675, 2,    128.114,  -91.5,    1.0676, 0, 0, 0, 0
"BUSLVMAI59", 0.20785, 1,    128.724,  -31.0,    1.0727, 2,     128.74,  149.0,    1.0728, 0, 0, 0, 0
"BUSLVMAI60", 0.20785, 1,    128.705,  -31.0,    1.0725, 2,    128.718,  149.0,    1.0727, 0, 0, 0, 0
"BUSLVMAI61", 0.20785, 1,    128.431,  -31.1,    1.0703, 2,    128.447,  148.9,    1.0704, 0, 0, 0, 0
"BUSLVMAI62", 0.20785, 1,    128.259, -151.1,    1.0688, 2,    128.273,   28.9,    1.0689, 0, 0, 0, 0
"BUSLVMAI63", 0.20785, 1,    128.549,  -31.1,    1.0712, 2,    128.569,  148.9,    1.0714, 0, 0, 0, 0
"BUSLVMAI64", 0.20785, 1,    128.259, -151.1,    1.0688, 2,    128.273,   28.9,    1.0689, 0, 0, 0, 0
"BUSLVMAI65", 0.20785, 1,    128.714,  -31.0,    1.0726, 2,    128.728,  149.0,    1.0727, 0, 0, 0, 0
"BUSLVMAI66", 0.20785, 1,    128.092,   88.5,    1.0674, 2,    128.106,  -91.5,    1.0675, 0, 0, 0, 0
"BUSLVMAI67", 0.20785, 1,    128.434,  -31.1,    1.0703, 2,     128.45,  148.9,    1.0704, 0, 0, 0, 0
"BUSLVMAI68", 0.20785, 1,    128.402,  -31.2,      1.07, 2,    128.415,  148.8,    1.0701, 0, 0, 0, 0
"BUSLVMAI69", 0.20785, 1,    128.095,   88.5,    1.0675, 2,    128.108,  -91.5,    1.0676, 0, 0, 0, 0
"BUSLVMAI70", 0.20785, 1,    127.811,   88.4,    1.0651, 2,    127.835,  -91.6,    1.0653, 0, 0, 0, 0
"BUSLVMAI71", 0.20785, 1,    128.182,  -31.3,    1.0682, 2,    128.197,  148.7,    1.0683, 0, 0, 0, 0
"BUSLVMAI72", 0.20785, 1,    128.669,  -31.0,    1.0722, 2,    128.682,  149.0,    1.0724, 0, 0, 0, 0
"BUSLVMAI73", 0.20785, 1,    128.539,  -31.1,    1.0712, 2,    128.552,  148.9,    1.0713, 0, 0, 0, 0
"BUSLVMAI74", 0.20785, 1,    128.723,  -31.0,    1.0727, 2,    128.739,  149.0,    1.0728, 0, 0, 0, 0
"BUSLVMAI75", 0.20785, 1,    128.119, -151.1,    1.0677, 2,    128.134,   28.9,    1.0678, 0, 0, 0, 0
"BUSLVMAI76", 0.20785, 1,    128.092,   88.5,    1.0674, 2,    128.105,  -91.5,    1.0675, 0, 0, 0, 0
"BUSLVMAI77", 0.20785, 1,     128.52,  -31.1,     1.071, 2,    128.534,  148.9,    1.0711, 0, 0, 0, 0
"BUSLVMAI78", 0.20785, 1,     128.66,  -31.0,    1.0722, 2,    128.674,  149.0,    1.0723, 0, 0, 0, 0
"BUSLVMAI79", 0.20785, 1,     128.03,   88.5,    1.0669, 2,    128.044,  -91.5,     1.067, 0, 0, 0, 0
"BUSLVMAI80", 0.20785, 1,    127.471,   88.2,    1.0623, 2,    127.495,  -91.8,    1.0625, 0, 0, 0, 0
"BUSLVMAI81", 0.20785, 1,    128.091,   88.5,    1.0674, 2,    128.105,  -91.5,    1.0675, 0, 0, 0, 0
"BUSLVMAI82", 0.20785, 1,    128.004,   88.5,    1.0667, 2,     128.02,  -91.5,    1.0668, 0, 0, 0, 0
"BUSLVMAI83", 0.20785, 1,    128.464,  -31.1,    1.0705, 2,    128.483,  148.9,    1.0707, 0, 0, 0, 0
"BUSLVMAI84", 0.20785, 1,    127.855,   88.4,    1.0655, 2,    127.869,  -91.6,    1.0656, 0, 0, 0, 0
"BUSLVMAI85", 0.20785, 1,    128.328, -151.0,    1.0694, 2,    128.344,   29.0,    1.0695, 0, 0, 0, 0
"BUSLVMAI86", 0.20785, 1,    128.591,  -31.1,    1.0716, 2,    128.614,  148.9,    1.0718, 0, 0, 0, 0
"BUSLVMAI87", 0.20785, 1,    128.717,  -31.0,    1.0726, 2,    128.753,  149.0,    1.0729, 0, 0, 0, 0
"BUSLVMAI88", 0.20785, 1,    128.123,   88.5,    1.0677, 2,    128.136,  -91.5,    1.0678, 0, 0, 0, 0
"BUSLVMAI89", 0.20785, 1,    128.092,   88.5,    1.0674, 2,    128.105,  -91.5,    1.0675, 0, 0, 0, 0
"BUSLVMAI90", 0.20785, 1,    127.811,   88.4,    1.0651, 2,    127.827,  -91.6,    1.0652, 0, 0, 0, 0
"BUSLVMAI91", 0.20785, 1,    128.095,   88.5,    1.0675, 2,     128.11,  -91.5,    1.0676, 0, 0, 0, 0
"BUSLVMAI92", 0.20785, 1,    128.536,  -31.1,    1.0711, 2,    128.554,  148.9,    1.0713, 0, 0, 0, 0
"BUSLVMAI93", 0.20785, 1,    127.963,   88.5,    1.0664, 2,    127.979,  -91.5,    1.0665, 0, 0, 0, 0
"BUSLVMAI94", 0.20785, 1,    127.837,   88.4,    1.0653, 2,    127.851,  -91.6,    1.0654, 0, 0, 0, 0
"BUSLVMAI95", 0.20785, 1,    128.024,   88.5,    1.0669, 2,    128.039,  -91.5,     1.067, 0, 0, 0, 0
"BUSLVMAI96", 0.20785, 1,    128.072,   88.5,    1.0673, 2,    128.086,  -91.5,    1.0674, 0, 0, 0, 0
"BUSLVMAI97", 0.20785, 1,     128.37, -151.0,    1.0698, 2,    128.386,   29.0,    1.0699, 0, 0, 0, 0
"BUSLVMAI98", 0.20785, 1,     128.37, -151.0,    1.0698, 2,    128.386,   29.0,    1.0699, 0, 0, 0, 0
"BUSLVMAI99", 0.20785, 1,    128.087,   88.5,    1.0674, 2,    128.101,  -91.5,    1.0675, 0, 0, 0, 0
"BUSLVMAI100", 0.20785, 1,     128.06,   88.5,    1.0672, 2,    128.074,  -91.5,    1.0673, 0, 0, 0, 0
"BUSLVMAI101", 0.20785, 1,    128.021,   88.5,    1.0668, 2,    128.037,  -91.5,     1.067, 0, 0, 0, 0
"BUSLVMAI102", 0.20785, 1,    128.089,   88.5,    1.0674, 2,    128.105,  -91.5,    1.0675, 0, 0, 0, 0
"BUSLVMAI103", 0.20785, 1,    128.006,   88.5,    1.0667, 2,    128.022,  -91.5,    1.0668, 0, 0, 0, 0
"BUSLVMAI104", 0.20785, 1,    127.981,   88.5,    1.0665, 2,    127.995,  -91.5,    1.0666, 0, 0, 0, 0
"BUSLVMAI105", 0.20785, 1,    127.897,   88.5,    1.0658, 2,    127.912,  -91.6,    1.0659, 0, 0, 0, 0
"BUSLVMAI106", 0.20785, 1,    128.701,  -31.0,    1.0725, 2,    128.715,  149.0,    1.0726, 0, 0, 0, 0
"BUSLVMAI107", 0.20785, 1,    128.094,   88.5,    1.0674, 2,    128.108,  -91.5,    1.0676, 0, 0, 0, 0
"BUSLVMAI108", 0.20785, 1,    128.035,   88.5,     1.067, 2,    128.049,  -91.5,    1.0671, 0, 0, 0, 0
"BUSLVMAI109", 0.20785, 1,    128.232,  -31.2,    1.0686, 2,    128.298,  148.8,    1.0692, 0, 0, 0, 0
"BUSLVMAI110", 0.20785, 1,    128.453,  -31.1,    1.0704, 2,    128.471,  148.9,    1.0706, 0, 0, 0, 0
"BUSLVMAI111", 0.20785, 1,    128.553,  -31.1,    1.0713, 2,    128.569,  148.9,    1.0714, 0, 0, 0, 0
"BUSLVMAI112", 0.20785, 1,    128.643,  -31.0,     1.072, 2,    128.659,  149.0,    1.0722, 0, 0, 0, 0
"BUSLVMAI113", 0.20785, 1,    128.325, -151.0,    1.0694, 2,     128.34,   29.0,    1.0695, 0, 0, 0, 0
"BUSLVMAI114", 0.20785, 1,    128.028,  -31.3,    1.0669, 2,    128.044,  148.7,     1.067, 0, 0, 0, 0
"BUSLVMAI115", 0.20785, 1,    128.556,  -31.1,    1.0713, 2,    128.569,  148.9,    1.0714, 0, 0, 0, 0
"BUSLVMAI116", 0.20785, 1,    127.999,   88.5,    1.0667, 2,    128.012,  -91.5,    1.0668, 0, 0, 0, 0
"BUSLVMAI117", 0.20785, 1,    128.315,  -31.2,    1.0693, 2,    128.337,  148.8,    1.0695, 0, 0, 0, 0
"BUSLVMAI118", 0.20785, 1,    128.311,  -31.2,    1.0693, 2,    128.327,  148.8,    1.0694, 0, 0, 0, 0
"BUSLVMAI119", 0.20785, 1,    127.812,   88.4,    1.0651, 2,    127.825,  -91.6,    1.0652, 0, 0, 0, 0
"BUSLVMAI120", 0.20785, 1,    128.554,  -31.1,    1.0713, 2,    128.568,  148.9,    1.0714, 0, 0, 0, 0
"BUSLVMAI121", 0.20785, 1,    128.391, -151.0,    1.0699, 2,    128.407,   29.0,    1.0701, 0, 0, 0, 0
"BUSLVMAI122", 0.20785, 1,    127.986,   88.5,    1.0665, 2,    128.002,  -91.5,    1.0667, 0, 0, 0, 0
"BUSLVMAI123", 0.20785, 1,    128.394, -151.0,    1.0699, 2,    128.408,   29.0,    1.0701, 0, 0, 0, 0
"BUSLVMAI124", 0.20785, 1,    127.544,   88.3,    1.0629, 2,     127.59,  -91.7,    1.0633, 0, 0, 0, 0
"BUSLVMAI125", 0.20785, 1,    127.753,   88.4,    1.0646, 2,    127.769,  -91.6,    1.0647, 0, 0, 0, 0
"BUSLVMAI126", 0.20785, 1,    128.398, -151.0,      1.07, 2,    128.412,   29.0,    1.0701, 0, 0, 0, 0
"BUSLVMAI127", 0.20785, 1,    127.991,   88.5,    1.0666, 2,    128.005,  -91.5,    1.0667, 0, 0, 0, 0
"BUSLVMAI128", 0.20785, 1,    127.733, -151.3,    1.0644, 2,    127.752,   28.7,    1.0646, 0, 0, 0, 0
"BUSLVMAI129", 0.20785, 1,    128.555,  -31.1,    1.0713, 2,    128.568,  148.9,    1.0714, 0, 0, 0, 0
"BUSLVMAI130", 0.20785, 1,     128.66,  -31.0,    1.0722, 2,    128.676,  149.0,    1.0723, 0, 0, 0, 0
"BUSLVMAI131", 0.20785, 1,    128.019,  -31.3,    1.0668, 2,     128.05,  148.7,    1.0671, 0, 0, 0, 0
"BUSLVMAI132", 0.20785, 1,    128.554,  -31.1,    1.0713, 2,    128.567,  148.9,    1.0714, 0, 0, 0, 0
"BUSLVMAI133", 0.20785, 1,    128.003,   88.5,    1.0667, 2,    128.021,  -91.5,    1.0668, 0, 0, 0, 0
"BUSLVMAI134", 0.20785, 1,    127.778,   88.4,    1.0648, 2,    127.792,  -91.6,    1.0649, 0, 0, 0, 0
"BUSLVMAI135", 0.20785, 1,    127.966,   88.5,    1.0664, 2,    127.983,  -91.5,    1.0665, 0, 0, 0, 0
"BUSLVMAI136", 0.20785, 1,     128.26,  -31.2,    1.0688, 2,    128.285,  148.8,     1.069, 0, 0, 0, 0
"BUSLVMAI137", 0.20785, 1,    128.132, -151.1,    1.0678, 2,    128.146,   28.9,    1.0679, 0, 0, 0, 0
"BUSLVMAI138", 0.20785, 1,    128.258, -151.1,    1.0688, 2,     128.28,   28.9,     1.069, 0, 0, 0, 0
"BUSLVMAI139", 0.20785, 1,    128.195, -151.1,    1.0683, 2,    128.211,   28.9,    1.0684, 0, 0, 0, 0
"BUSLVMAI140", 0.20785, 1,    128.304,  -31.2,    1.0692, 2,     128.32,  148.8,    1.0693, 0, 0, 0, 0
"BUSLVMAI141", 0.20785, 1,    128.398, -151.0,      1.07, 2,    128.412,   29.0,    1.0701, 0, 0, 0, 0
"BUSLVMAI142", 0.20785, 1,      128.1, -151.1,    1.0675, 2,    128.114,   28.9,    1.0676, 0, 0, 0, 0
"BUSLVMAI143", 0.20785, 1,    128.342, -151.0,    1.0695, 2,    128.358,   29.0,    1.0697, 0, 0, 0, 0
"BUSLVMAI144", 0.20785, 1,    127.988,   88.5,    1.0666, 2,    128.004,  -91.5,    1.0667, 0, 0, 0, 0
"BUSLVMAI145", 0.20785, 1,    128.633,  -31.0,    1.0719, 2,    128.648,  148.9,    1.0721, 0, 0, 0, 0
"BUSLVMAI146", 0.20785, 1,    128.391, -151.0,    1.0699, 2,    128.405,   29.0,      1.07, 0, 0, 0, 0
"BUSLVMAI147", 0.20785, 1,    128.159,  -31.3,     1.068, 2,    128.174,  148.7,    1.0681, 0, 0, 0, 0
"BUSLVMAI148", 0.20785, 1,    127.961,   88.5,    1.0663, 2,    127.976,  -91.5,    1.0665, 0, 0, 0, 0
"BUSLVMAI149", 0.20785, 1,    128.148, -151.1,    1.0679, 2,    128.161,   28.9,     1.068, 0, 0, 0, 0
"BUSLVMAI150", 0.20785, 1,    128.293,  -31.2,    1.0691, 2,    128.314,  148.8,    1.0693, 0, 0, 0, 0
"BUSLVMAI151", 0.20785, 1,    128.066, -151.1,    1.0672, 2,    128.079,   28.9,    1.0673, 0, 0, 0, 0
"BUSLVMAI152", 0.20785, 1,    128.546,  -31.1,    1.0712, 2,    128.561,  148.9,    1.0713, 0, 0, 0, 0
"BUSLVMAI153", 0.20785, 1,    127.399,   88.3,    1.0617, 2,    127.415,  -91.7,    1.0618, 0, 0, 0, 0
"BUSLVMAI154", 0.20785, 1,    127.997,   88.5,    1.0666, 2,    128.013,  -91.5,    1.0668, 0, 0, 0, 0
"BUSLVMAI155", 0.20785, 1,    128.284,  -31.2,     1.069, 2,    128.298,  148.8,    1.0692, 0, 0, 0, 0
"BUSLVMAI156", 0.20785, 1,    128.557,  -31.1,    1.0713, 2,     128.57,  148.9,    1.0714, 0, 0, 0, 0
"BUSLVMAI157", 0.20785, 1,    128.036,  -31.3,     1.067, 2,    128.052,  148.7,    1.0671, 0, 0, 0, 0
"BUSLVMAI158", 0.20785, 1,    128.349, -151.0,    1.0696, 2,    128.362,   29.0,    1.0697, 0, 0, 0, 0
"BUSLVMAI159", 0.20785, 1,    128.343, -151.0,    1.0695, 2,    128.356,   29.0,    1.0696, 0, 0, 0, 0
"BUSLVMAI160", 0.20785, 1,    128.469,  -31.1,    1.0706, 2,    128.486,  148.9,    1.0707, 0, 0, 0, 0
"BUSLVMAI161", 0.20785, 1,    128.409,  -31.1,    1.0701, 2,    128.434,  148.9,    1.0703, 0, 0, 0, 0
"BUSLVMAI162", 0.20785, 1,    128.428,  -31.1,    1.0702, 2,    128.444,  148.9,    1.0704, 0, 0, 0, 0
"BUSLVMAI163", 0.20785, 1,    128.546,  -31.1,    1.0712, 2,    128.561,  148.9,    1.0713, 0, 0, 0, 0
"BUSLVMAI164", 0.20785, 1,    128.685,  -31.0,    1.0724, 2,    128.699,  149.0,    1.0725, 0, 0, 0, 0
"BUSLVMAI165", 0.20785, 1,    128.132,  -31.2,    1.0678, 2,    128.175,  148.8,    1.0681, 0, 0, 0, 0
"BUSLVMAI166", 0.20785, 1,    128.371,  -31.2,    1.0698, 2,    128.402,  148.8,      1.07, 0, 0, 0, 0
"BUSLVMAI167", 0.20785, 1,    127.789,   88.4,    1.0649, 2,    127.802,  -91.6,     1.065, 0, 0, 0, 0
"BUSLVMAI168", 0.20785, 1,      127.9,   88.5,    1.0658, 2,    127.914,  -91.5,    1.0659, 0, 0, 0, 0
"BUSLVMAI169", 0.20785, 1,    127.817,  -31.2,    1.0651, 2,    127.835,  148.8,    1.0653, 0, 0, 0, 0
"BUSLVMAI170", 0.20785, 1,    128.549,  -31.1,    1.0712, 2,    128.563,  148.9,    1.0714, 0, 0, 0, 0
"BUSLVMAI171", 0.20785, 1,    128.184,  -31.2,    1.0682, 2,    128.275,  148.8,     1.069, 0, 0, 0, 0
"BUSLVMAI172", 0.20785, 1,    127.687,   88.4,    1.0641, 2,    127.702,  -91.6,    1.0642, 0, 0, 0, 0
"BUSLVMAI173", 0.20785, 1,    127.985,   88.5,    1.0665, 2,    128.001,  -91.5,    1.0667, 0, 0, 0, 0
"BUSLVMAI174", 0.20785, 1,    128.334,  -31.2,    1.0695, 2,    128.358,  148.8,    1.0697, 0, 0, 0, 0
"BUSLVMAI175", 0.20785, 1,    128.263,  -31.2,    1.0689, 2,    128.277,  148.8,     1.069, 0, 0, 0, 0
"BUSLVMAI176", 0.20785, 1,    127.911,   88.5,    1.0659, 2,    127.924,  -91.5,     1.066, 0, 0, 0, 0
"BUSLVMAI177", 0.20785, 1,     127.96,   88.5,    1.0663, 2,    127.973,  -91.5,    1.0664, 0, 0, 0, 0
"BUSLVMAI178", 0.20785, 1,    128.341, -151.0,    1.0695, 2,    128.355,   29.0,    1.0696, 0, 0, 0, 0
"BUSLVMAI179", 0.20785, 1,    128.254, -151.1,    1.0688, 2,    128.267,   28.9,    1.0689, 0, 0, 0, 0
"BUSLVMAI180", 0.20785, 1,    128.557,  -31.1,    1.0713, 2,     128.57,  148.9,    1.0714, 0, 0, 0, 0
"BUSLVMAI181", 0.20785, 1,    128.548,  -31.1,    1.0712, 2,    128.562,  148.9,    1.0714, 0, 0, 0, 0
"BUSLVMAI182", 0.20785, 1,    128.029,  -31.3,    1.0669, 2,    128.108,  148.7,    1.0676, 0, 0, 0, 0
"BUSLVMAI183", 0.20785, 1,    127.946,   88.5,    1.0662, 2,     127.96,  -91.5,    1.0663, 0, 0, 0, 0
"BUSLVMAI184", 0.20785, 1,    128.667,  -31.0,    1.0722, 2,     128.68,  149.0,    1.0723, 0, 0, 0, 0
"BUSLVMAI185", 0.20785, 1,    128.189, -151.1,    1.0682, 2,    128.202,   28.9,    1.0684, 0, 0, 0, 0
"BUSLVMAI186", 0.20785, 1,        128,   88.5,    1.0667, 2,    128.016,  -91.5,    1.0668, 0, 0, 0, 0
"BUSLVMAI187", 0.20785, 1,    127.897,   88.5,    1.0658, 2,     127.91,  -91.5,    1.0659, 0, 0, 0, 0
"BUSLVMAI188", 0.20785, 1,    128.353, -151.0,    1.0696, 2,    128.368,   29.0,    1.0697, 0, 0, 0, 0
"BUSLVMAI189", 0.20785, 1,    128.552,  -31.1,    1.0713, 2,    128.568,  148.9,    1.0714, 0, 0, 0, 0
"BUSLVMAI190", 0.20785, 1,    128.345, -151.0,    1.0695, 2,    128.362,   29.0,    1.0697, 0, 0, 0, 0
"BUSLVMAI191", 0.20785, 1,    127.997,   88.5,    1.0666, 2,    128.013,  -91.5,    1.0668, 0, 0, 0, 0
"BUSLVMAI192", 0.20785, 1,    128.544,  -31.1,    1.0712, 2,     128.56,  148.9,    1.0713, 0, 0, 0, 0
"BUSLVMAI193", 0.20785, 1,    128.548,  -31.1,    1.0712, 2,    128.565,  148.9,    1.0714, 0, 0, 0, 0
"BUSLVMAI194", 0.20785, 1,    127.938,   88.5,    1.0661, 2,    127.953,  -91.5,    1.0663, 0, 0, 0, 0
"BUSLVMAI195", 0.20785, 1,    127.999,   88.5,    1.0667, 2,    128.015,  -91.5,    1.0668, 0, 0, 0, 0
"BUSLVMAI196", 0.20785, 1,    128.322, -151.0,    1.0694, 2,    128.338,   29.0,    1.0695, 0, 0, 0, 0
"BUSLVMAI197", 0.20785, 1,     128.29, -151.0,    1.0691, 2,    128.304,   29.0,    1.0692, 0, 0, 0, 0
"BUSLVMAI198", 0.20785, 1,    128.323, -151.0,    1.0694, 2,    128.338,   29.0,    1.0695, 0, 0, 0, 0
"BUSLVMAI199", 0.20785, 1,    128.323, -151.0,    1.0694, 2,    128.339,   29.0,    1.0695, 0, 0, 0, 0
"BUSLVMAI200", 0.20785, 1,    128.542,  -31.1,    1.0712, 2,    128.558,  148.9,    1.0713, 0, 0, 0, 0
...
